/*--------------------------------*- C++ -*----------------------------------*\
| =========                 |                                                 |
| \\      /  F ield         | OpenFOAM: The Open Source CFD Toolbox           |
|  \\    /   O peration     | Version:  2.4.0                                 |
|   \\  /    A nd           | Web:      www.OpenFOAM.org                      |
|    \\/     M anipulation  |                                                 |
\*---------------------------------------------------------------------------*/
FoamFile
{
    version     2.0;
    format      ascii;
    class       dictionary;
    location    "constant";
    object      thermophysicalProperties;
}
// * * * * * * * * * * * * * * * * * * * * * * * * * * * * * * * * * * * * * //

thermoType
{
    type            heRhoThermo;
    mixture         reactingMixture;
    transport       sutherland;
    thermo          janaf;
    energy          sensibleEnthalpy;
    equationOfState perfectGas;
    specie          specie;
}

CHEMKINFile     "$FOAM_CASE/chemkin/chem.inp"; //chem.inp";

CHEMKINThermoFile "$FOAM_CASE/chemkin/thermo.dat"; //therm.dat";

CHEMKINTransportFile "$FOAM_CASE/chemkin/transportProperties"; //therm.dat";

fgmThermoproperties true;

newFormat       no; //yes;

inertSpecie     N2;

liquids
{
    C12H26
    {
        defaultCoeffs   yes;
    }
}

solids
{
    // none
}

// ************************************************************************* //
